core.pdb
 OpenBabel05012510463D

 11 11  0  0  0  0  0  0  0  0999 V2000
    5.7640    0.2340   17.3690 N   0  0  0  0  0  0  0  0  0  0  0  0
    6.1040    0.0970   19.7620 C   0  0  0  0  0  0  0  0  0  0  0  0
    6.4230   -0.2110   18.4440 C   0  0  0  0  0  0  0  0  0  0  0  0
    4.7290    1.0360   17.5780 C   0  0  0  0  0  0  0  0  0  0  0  0
    4.2770    1.4340   18.8610 C   0  0  0  0  0  0  0  0  0  0  0  0
    4.9840    0.9420   19.9950 C   0  0  0  0  0  0  0  0  0  0  0  0
    6.6621   -0.2757   20.5460 H   0  0  0  0  0  0  0  0  0  0  0  0
    7.2317   -0.8316   18.2830 H   0  0  0  0  0  0  0  0  0  0  0  0
    4.2203    1.3931   16.7542 H   0  0  0  0  0  0  0  0  0  0  0  0
    3.4631    2.0591   18.9697 H   0  0  0  0  0  0  0  0  0  0  0  0
    4.6934    1.1902   20.9536 H   0  0  0  0  0  0  0  0  0  0  0  0
  1  3  2  0  0  0  0
  1  4  1  0  0  0  0
  2  3  1  0  0  0  0
  2  6  2  0  0  0  0
  2  7  1  0  0  0  0
  3  8  1  0  0  0  0
  4  5  2  0  0  0  0
  4  9  1  0  0  0  0
  5  6  1  0  0  0  0
  5 10  1  0  0  0  0
  6 11  1  0  0  0  0
M  END
$$$$
